Version 4
SHEET 1 2896 680
WIRE 2624 -96 2592 -96
WIRE 2752 -96 2720 -96
WIRE 144 -32 32 -32
WIRE 2704 -32 2704 -48
WIRE 2752 -32 2704 -32
WIRE 1088 32 944 32
WIRE 32 48 32 -32
WIRE 32 176 32 128
FLAG 32 176 0
FLAG 144 -32 V_batt
IOPIN 144 -32 BiDir
FLAG 2752 -96 V_smk
IOPIN 2752 -96 BiDir
FLAG 1088 32 V_uP
IOPIN 1088 32 BiDir
FLAG 960 -160 V_fan
IOPIN 960 -160 BiDir
FLAG 2752 -32 smk_IO
IOPIN 2752 -32 BiDir
FLAG 944 32 V_batt
IOPIN 944 32 BiDir
FLAG 1712 176 smk_IO
IOPIN 1712 176 BiDir
FLAG 1712 128 V_5v
IOPIN 1712 128 BiDir
FLAG 2592 -96 V_batt
IOPIN 2592 -96 BiDir
SYMBOL voltage 32 32 R0
WINDOW 123 0 0 Left 0
WINDOW 39 0 0 Left 0
SYMATTR InstName V1
SYMATTR Value 7.4
SYMBOL nmos 2624 -48 R270
SYMATTR InstName M1
TEXT 1128 -56 Left 2 ;Arduino Nano
TEXT 1096 -16 Left 2 ;Inputs
TEXT 1632 -16 Left 2 ;Outputs
TEXT 2408 -224 Left 2 ;Smoker
TEXT 2408 112 Left 2 ;Fan
TEXT 2408 -632 Left 2 ;User Interface
TEXT 2408 368 Left 2 ;FX Light
RECTANGLE Normal 1728 368 1088 -80 2
